lehigh_full.dss
clear
set defaultbasefrequency=60
new object=circuit.lehigh basekv=115 pu=1.0001 phases=3 bus1=sourcebus angle=30 mvasc3=20000 mvasc1=21000
edit object=vsource.source basekv=115 bus1=sourcebus.1.2.3 pu=1.00 r1=0 x1=0.0001 r0=0 x0=0.0001
new object=vsource.secondsource basekv=4.16 bus1=680.1.2.3 pu=1.00 r1=0 x1=0.0001 r0=0 x0=0.0001
new object=transformer.sub phases=3 windings=2 xhl=0.008 buses=[sourcebus.1.2.3,650.1.2.3] conns=[delta,wye] kvs=[115,4.16] kvas=[5000,5000] %rs=[0.0005,0.0005]
new object=transformer.reg1 phases=1 bank=reg1 xhl=0.01 kvas=[1666,1666] buses=[650.1,rg60.1] kvs=[2.4,2.4] %loadloss=0.01
new object=regcontrol.reg1 transformer=reg1 winding=2 vreg=121 band=2 ptratio=20 ctprim=700 r=3 x=9
new object=transformer.reg2 phases=1 bank=reg1 xhl=0.01 kvas=[1666,1666] buses=[650.2,rg60.2] kvs=[2.4,2.4] %loadloss=0.01
new object=regcontrol.reg2 transformer=reg2 winding=2 vreg=121 band=2 ptratio=20 ctprim=700 r=3 x=9
new object=transformer.reg3 phases=1 bank=reg1 xhl=0.01 kvas=[1666,1666] buses=[650.3,rg60.3] kvs=[2.4,2.4] %loadloss=0.01
new object=regcontrol.reg3 transformer=reg3 winding=2 vreg=121 band=2 ptratio=20 ctprim=700 r=3 x=9
new object=transformer.xfm1 phases=3 windings=2 xhl=2 buses=[633.1.2.3,634.1.2.3] conns=[wye,wye] kvs=[4.16,0.480] kvas=[500,500] %rs=[0.55,0.55] xht=1 xlt=1
new object=linecode.mtx601 nphases=3 basefreq=60 rmatrix=[0.3465|0.1560,0.3375|0.1580,0.1535,0.3414] xmatrix=[1.0179|0.5017,1.0478|0.4236,0.3849,1.0348] units=mi
new object=linecode.mtx602 nphases=3 basefreq=60 rmatrix=[0.7526|0.1580,0.7475|0.1560,0.1535,0.7436] xmatrix=[1.1814|0.4236,1.1983|0.5017,0.3849,1.2112] units=mi
new object=linecode.mtx603 nphases=2 basefreq=60 rmatrix=[1.3238|0.2066,1.3294] xmatrix=[1.3569|0.4591,1.3471] units=mi
new object=linecode.mtx604 nphases=2 basefreq=60 rmatrix=[1.3238|0.2066,1.3294] xmatrix=[1.3569|0.4591,1.3471] units=mi
new object=linecode.mtx605 nphases=1 basefreq=60 rmatrix=[1.3292] xmatrix=[1.3475] units=mi
new object=linecode.mtx606 nphases=3 units=mi rmatrix=[0.791721|0.318476,0.781649|0.28345,0.318476,0.791721] xmatrix=[0.438352|0.0276838,0.396697|-0.0184204,0.0276838,0.438352] cmatrix=[383.948|0,383.948|0,0,383.948]
new object=linecode.mtx607 nphases=1 basefreq=60 rmatrix=[1.3425] xmatrix=[0.5124] cmatrix=[236] units=mi
new object=loadshape.solar_670_shape npts=8760 interval=1 useactual=no mult=[0.0,0.0,0.0,0.0,0.0,0.0,0.0,0.0,0.01628447212384098,0.04937472641171555,0.06969785904731586,0.2141738628676032,0.04911407139161925,0.11477326992717578,0.17170400732221736,0.1848616140713916,0.09236589199729396,0.006122905806040829,0.0,0.0,0.0,0.0,0.0,0.0,0.0,0.0,0.0,0.0,0.0,0.0,0.0,0.0,0.04273051056548211,0.1085200366110868,0.1519016872935652,0.005992578295992678,0.3260809224402085,0.11659686020136098,0.42339677265310993,0.2911670778781488,0.15372577500099488,0.013158104182418721,0.0,0.0,0.0,0.0,0.0,0.0,0.0,0.0,0.0,0.0,0.0,0.0,0.0,0.0,0.1253253213418759,0.2922092005252895,0.3882222730709539,0.1645384814357913,0.2925996856221895,0.2918182179951451,0.23840483107167015,0.20700833698117715,0.10865036412113496,0.008598133630466792,0.0,0.0,0.0,0.0,0.0,0.0,0.0,0.0,0.0,0.0,0.0,0.0,0.0,0.0,0.1907238648573361,0.4369458593656731,0.6203738708265352,0.7348879780333479,0.7785277965697003,0.7579440089140038,0.6667545465398544,0.5110728640216483,0.27853028373592265,0.05471616459071193,0.0,0.0,0.0,0.0,0.0,0.0,0.0,0.0,0.0,0.0,0.0,0.0,0.0,0.0,0.2073993195113216,0.4627402602570735,0.6511202196665208,0.7652413546102114,0.8069312348282861,0.7783984639261411,0.6806926260495842,0.5188875402920928,0.28113583907039674,0.053413386923474866,0.0,0.0,0.0,0.0,0.0,0.0,0.0,0.0,0.0,0.0,0.0,0.0,0.0,0.0,0.16388734131879504,0.3880919455609057,0.6083907039675276,0.545206733256397,0.6163347128815313,0.6357495324127502,0.6382217756377094,0.4842358430498627,0.2621154841020336,0.0489837438815711,0.0,0.0,0.0,0.0,0.0,0.0,0.0,0.0,0.0,0.0,0.0,0.0,0.0,0.0,0.16636256914322098,0.16519011898603206,0.5902791595367902,0.6770464403677027,0.6063064586732461,0.5805095706156234,0.4893166262087628,0.2501298300768037,0.13209986469815752,0.014069899319511322,0.0,0.0,0.0,0.0,0.0,0.0,0.0,0.0,0.0,0.0,0.0,0.0,0.0,0.0,0.1693586095745951,0.39486648891718734,0.10422072107923117,0.13731097536710574,0.30732122249194155,0.3560443113534164,0.2916878904850969,0.1890306020931991,0.10031238807752,0.011594671495085359,0.0,0.0,0.0,0.0,0.0,0.0,0.0,0.0,0.0,0.0,0.0,0.0,0.0,0.0,0.17404890763659514,0.39955628954594297,0.2141738628676032,0.4555752318038919,0.3568257789804608,0.1666232241633173,0.21365255282741052,0.1787387082653508,0.0926260495841458,0.04377263321262287,0.0,0.0,0.0,0.0,0.0,0.0,0.0,0.0,0.0,0.0,0.0,0.0,0.0,0.0,0.08064089299216046,0.1993224959210474,0.3211299693581121,0.5504148593258785,0.3194367065939751,0.417143539337021,0.4236574276732063,0.3418440845238569,0.1907238648573361,0.03348073938477457,0.0,0.0,0.0,0.0,0.0,0.0,0.0,0.0,0.0,0.0,0.0,0.0,0.0,0.0,0.21000487484579566,0.46482450555135496,0.6505979147598393,0.7625054717656892,0.8036730470770823,0.7785277965697003,0.6875969994826694,0.5353028373592265,0.3177429463965936,0.07829599267778264,0.0,0.0,0.0,0.0,0.0,0.0,0.0,0.0,0.0,0.0,0.0,0.0,0.0,0.0,0.19398105774205104,0.44059353734728796,0.6182896255322536,0.7497363603804371,0.7955947311870748,0.7778761590194596,0.6892882725138287,0.5218870627561781,0.3103172629233157,0.07712354252059374,0.0,0.0,0.0,0.0,0.0,0.0,0.0,0.0,0.0,0.0,0.0,0.0,0.0,0.0,0.1898120697202436,0.4356430816984361,0.6134694973934498,0.5659198535556529,0.6281885470969796,0.5712622866011382,0.5155000198973297,0.4112812885510765,0.2440069242707629,0.059014982689323085,0.0,0.0,0.0,0.0,0.0,0.0,0.0,0.0,0.0,0.0,0.0,0.0,0.0,0.0,0.0790774603048271,0.1873368418958176,0.33949918420947905,0.4327768713438657,0.4958300171117037,0.4550539217636993,0.2691501850451669,0.21912431851645509,0.12363205857773887,0.020192805125552157,0.0,0.0,0.0,0.0,0.0,0.0,0.0,0.0,0.0,0.0,0.0,0.0,0.0,0.0,0.04168838791834136,0.11190705957260537,0.5198028174618966,0.6479913645588763,0.7484330852799554,0.7295505193203073,0.5859465159775559,0.5178479048111744,0.30184945680289704,0.07634157746030483,0.0,0.0,0.0,0.0,0.0,0.0,0.0,0.0,0.0,0.0,0.0,0.0,0.0,0.0,0.17261580245930996,0.4011197222332763,0.5657905209120937,0.4785039197739664,0.5624030005173305,0.7322814278323848,0.4425474551315214,0.20218820884237335,0.11320983723984243,0.020453460145648455,0.0,0.0,0.0,0.0,0.0,0.0,0.0,0.0,0.0,0.0,0.0,0.0,0.0,0.0,0.17847805324525448,0.4292595208722989,0.6266266067093796,0.7636794142226113,0.7927295156989933,0.7724043933304151,0.6859057264515103,0.5397349675673525,0.3160496836324565,0.08233465318954197,0.0,0.0,0.0,0.0,0.0,0.0,0.0,0.0,0.0,0.0,0.0,0.0,0.0,0.0,0.1948928528791436,0.4390301046599547,0.6352272275060687,0.7523429105814001,0.7992409168689563,0.7791794341199412,0.6993215010545585,0.547549643837797,0.32165127939830473,0.08493971109077163,0.0,0.0,0.0,0.0,0.0,0.0,0.0,0.0,0.0,0.0,0.0,0.0,0.0,0.0,0.2055757292371364,0.4609166699828883,0.6464294241712762,0.7569043734330853,0.8292062955151419,0.8079708703092046,0.718079708703092,0.5492458912014009,0.3379357515221458,0.0926260495841458,0.0,0.0,0.0,0.0,0.0,0.0,0.0,0.0,0.0,0.0,0.0,0.0,0.0,0.0,0.2017972263122289,0.4501034661148474,0.629362489553902,0.7369722233276295,0.7772245214692188,0.7539048509690001,0.672092005252895,0.5299653786461858,0.32113046679135665,0.08637281626805683,0.0,0.0,0.0,0.0,0.0,0.0,0.0,0.0,0.0,0.0,0.0,0.0,0.0,0.0,0.05198028174618966,0.13014594691392414,0.1971074256834733,0.11255869712284612,0.32634157746030484,0.08702445381829757,0.0908024593099606,0.001302777667237057,0.0,0.0,0.0,0.0,0.0,0.0,0.0,0.0,0.0,0.0,0.0,0.0,0.0,0.0,0.0,0.0,0.04794162123443034,0.14082832583867247,0.3979933542918541,0.4250905328504915,0.7691561542441004,0.7743742289784711,0.3710260058100203,0.32191193441840105,0.18720651438576946,0.04155806040829321,0.0,0.0,0.0,0.0,0.0,0.0,0.0,0.0,0.0,0.0,0.0,0.0,0.0,0.0,0.05419485455051932,0.14056767081857616,0.1633660312786024,0.4065914879223209,0.857868399060846,0.8434080146444347,0.7527358828445223,0.5941889848382347,0.35851953917784235,0.10161516574475704,0.0,0.0,0.0,0.0,0.0,0.0,0.0,0.0,0.0,0.0,0.0,0.0,0.0,0.0,0.21495533049464766,0.4732928091050181,0.6595865334872061,0.7712354252059375,0.8177404592303713,0.7979426161009192,0.7146921883083291,0.5665714911058937,0.35487186119622743,0.10396006605913488,0.0,0.0,0.0,0.0,0.0,0.0,0.0,0.0,0.0,0.0,0.0,0.0,0.0,0.0,0.2047937641768475,0.452318038919177,0.6292331569103427,0.7374945282343109,0.7819153169644635,0.7605505591149668,0.6829062039874249,0.5449430936368339,0.34067163436666803,0.10044271558756816,0.0,0.0,0.0,0.0,0.0,0.0,0.0,0.0,0.0,0.0,0.0,0.0,0.0,0.0,0.13587787018982053,0.3114897130805046,0.359040849218035,0.5329599267778264,0.5966662023956385,0.5717796171753751,0.5205837876556966,0.382881332325202,0.23449699550320344,0.0669619762027936,0.0,0.0,0.0,0.0,0.0,0.0,0.0,0.0,0.0,0.0,0.0,0.0,0.0,0.0,0.16154244100441725,0.3774095666361575,0.3656845676310239,0.6792600183055434,0.7166471009590514,0.5199321501054559,0.07217308687174183,0.5054717656890445,0.29859276135142665,0.08402791595367902,0.0,0.0,0.0,0.0,0.0,0.0,0.0,0.0,0.0,0.0,0.0,0.0,0.0,0.0,0.04572704843010069,0.07360569461578256,0.11099526443551276,0.17157367981216926,0.1354868876596761,0.09405915476143102,0.09536193242866807,0.036998587289585744,0.019020354968363247,0.00039098253014445465,0.0,0.0,0.0,0.0,0.0,0.0,0.0,0.0,0.0,0.0,0.0,0.0,0.0,0.0,0.21521598551474394,0.4318576147081062,0.6529408253412392,0.6940188626686299,0.5213398861872737,0.5907417724541366,0.5271250348203271,0.5284183612559195,0.3557836563333201,0.1126885271996498,0.0,0.0,0.0,0.0,0.0,0.0,0.0,0.0,0.0,0.0,0.0,0.0,0.0,0.0,0.2044032790799475,0.451927553822277,0.6323570376855426,0.7407477416530702,0.7860838075530264,0.7699321501054558,0.6933274304588324,0.4450226829559473,0.2961175335270007,0.11190705957260537,0.0,0.0,0.0,0.0,0.0,0.0,0.0,0.0,0.0,0.0,0.0,0.0,0.0,0.0,0.06383511082812687,0.19580464801623626,0.33337627840343825,0.3374149389151976,0.4340796490111027,0.4099785108838394,0.3701142106729277,0.26628397469059656,0.1633660312786024,0.04689949858728959,0.0,0.0,0.0,0.0,0.0,0.0,0.0,0.0,0.0,0.0,0.0,0.0,0.0,0.0,0.21508565800469576,0.4727714990648255,0.6700077599586136,0.7849148394285488,0.8333747861037049,0.8189144016872936,0.7355396155835887,0.5928857097377532,0.3692019181025907,0.1232410760475944,0.0,0.0,0.0,0.0,0.0,0.0,0.0,0.0,0.0,0.0,0.0,0.0,0.0,0.0,0.2158671256317402,0.4602650324326476,0.6384804409248279,0.748174419992837,0.7928588483425525,0.7806120418639819,0.7068775120378845,0.5721725894384974,0.36907208802578695,0.12558597636197222,0.0,0.0,0.0,0.0,0.0,0.0,0.0,0.0,0.0,0.0,0.0,0.0,0.0,0.0,0.21430419037765133,0.1859037367185324,0.4360335667953361,0.5418192128616339,0.6182896255322536,0.6056548211230053,0.521757730112619,0.14942645946913924,0.10799872657089417,0.07126079430140475,0.0,0.0,0.0,0.0,0.0,0.0,0.0,0.0,0.0,0.0,0.0,0.0,0.0,0.0,0.0,0.16558060408293207,0.44645578813323256,0.6261092761351427,0.6662173186358391,0.7883272314855346,0.7468711448923555,0.5442516614270364,0.38327181742210203,0.13483574754267974,0.0,0.0,0.0,0.0,0.0,0.0,0.0,0.0,0.0,0.0,0.0,0.0,0.0,0.0,0.15476789764813562,0.4127143937283617,0.6173793226948944,0.6574624935333678,0.4737897449162322,0.4666719726212742,0.5517529547534721,0.4706494488439652,0.2308488200883441,0.1122980421027498,0.0,0.0,0.0,0.0,0.0,0.0,0.0,0.0,0.0,0.0,0.0,0.0,0.0,0.0,0.11386097735683873,0.15112021966652076,0.11386097735683873,0.17157367981216926,0.11360081976998687,0.4743349317521589,0.4319954037168212,0.31357445580803056,0.1089105217079868,0.014981694456603925,0.0,0.0,0.0,0.0,0.0,0.0,0.0,0.0,0.0,0.0,0.0,0.0,0.0,0.0,0.00846780612041864,0.05471616459071193,0.08559134864101238,0.30627909984480084,0.36868110549564254,0.17170400732221736,0.2486967248995185,0.10838970910103864,0.06578952604560469,0.12389271359783514,0.0,0.0,0.0,0.0,0.0,0.0,0.0,0.0,0.0,0.0,0.0,0.0,0.0,0.0,0.05393419953042302,0.0513286441959489,0.1990618409009511,0.3899160332683354,0.3576077440407497,0.4473675832703251,0.4889256436786184,0.5896275219865493,0.3811875721278205,0.1367896653269131,0.0,0.0,0.0,0.0,0.0,0.0,0.0,0.0,0.0,0.0,0.0,0.0,0.0,0.0,0.04325182060567472,0.10982281427832384,0.20544540172708825,0.7651120219666521,0.28712841736638944,0.2855649846790561,0.3241265072227307,0.2438765967607147,0.005992578295992678,0.12714940904930558,0.0,0.0,0.0,0.0,0.0,0.0,0.0,0.0,0.0,0.0,0.0,0.0,0.0,0.0,0.06917654900712325,0.30745155000198976,0.6645359942695691,0.7932518206056748,0.8374139440487087,0.8333747861037049,0.7572923713637629,0.6164640455250905,0.3990354769389948,0.15046858211628,0.0,0.0,0.0,0.0,0.0,0.0,0.0,0.0,0.0,0.0,0.0,0.0,0.0,0.022016395399737355,0.25364718054837043,0.5062527358828446,0.6935910700783955,0.8034094074575192,0.6144096462254766,0.7961916510804251,0.5914928966532691,0.5566178518842771,0.4127143937283617,0.1581549206096542,0.0,0.0,0.0,0.0,0.0,0.0,0.0,0.0,0.0,0.0,0.0,0.0,0.0,0.02240737792988181,0.2445282343109555,0.4878835210314776,0.6176678339766803,0.6462553225357157,0.4728595447490947,0.4834339806597955,0.4775259660153608,0.4806961080822954,0.3982535118787059,0.1533347924708504,0.0,0.0,0.0,0.0,0.0,0.0,0.0,0.0,0.0,0.0,0.0,0.0,0.0,0.0282701261490708,0.2570347009431334,0.5063820685264038,0.7049225993871622,0.7902522981415895,0.833504118747264,0.7002318038919177,0.6640186636953321,0.5089886187273668,0.4019016872935653,0.08676379879820129,0.0,0.0,0.0,0.0,0.0,0.0,0.0,0.0,0.0,0.0,0.0,0.0,0.0,0.0005213100401926062,0.1427822436229058,0.326862390067253,0.461958792630029,0.5259262207011819,0.6207668430896575,0.656979983286243,0.4369458593656731,0.3843139400692427,0.27240688049663736,0.09236589199729396,0.0,0.0,0.0,0.0,0.0,0.0,0.0,0.0,0.0,0.0,0.0,0.0,0.0,0.006253233316088981,0.2300673524612997,0.4613071550797883,0.6464294241712762,0.7592472840144853,0.8061452903020414,0.7937691511799116,0.7238151140116996,0.5850710334673087,0.3744130287715389,0.1447366588403836,0.0,0.0,0.0,0.0,0.0,0.0,0.0,0.0,0.0,0.0,0.0,0.0,0.0,0.0,0.034262704445063484,0.048592761351426636,0.15411626009789486,0.2156069680448884,0.2299370249512516,0.2783999562258745,0.17730560308806556,0.15385610251104306,0.16375701380874688,0.060839070396752765,0.0,0.0,0.0,0.0,0.0,0.0,0.0,0.0,0.0,0.0,0.0,0.0,0.0,0.0,0.0037780054916630185,0.16805583190735804,0.29898324644832663,0.387049822913765,0.5853296987544272,0.6688387918341359,0.5233196705002189,0.6473397270086354,0.24426757929085915,0.08363743085677902,0.0,0.0,0.0,0.0,0.0,0.0,0.0,0.0,0.0,0.0,0.0,0.0,0.0,0.027488161088781885,0.08533069362091608,0.183949818934299,0.3242568347327789,0.4488006884476104,0.8648424131481555,0.8380655815989494,0.7635451072466075,0.6211299693581122,0.42339677265310993,0.1707917147518803,0.0,0.0,0.0,0.0,0.0,0.0,0.0,0.0,0.0,0.0,0.0,0.0,0.0,0.03517449958215608,0.2609430339448446,0.5046907954952445,0.6793893509491027,0.7351565919853557,0.5593338373990211,0.6448077917943412,0.5725556130367305,0.5758237494528234,0.4099785108838394,0.16623224163317285,0.0,0.0,0.0,0.0,0.0,0.0,0.0,0.0,0.0,0.0,0.0,0.0,0.0,0.03204813164073382,0.09927026543037924,0.4153199490628358,0.5019549126507223,0.7495423614150981,0.5706603923753433,0.7694396911934418,0.6390723864857336,0.5813253611365355,0.4069819730192208,0.15802459309960604,0.0,0.0,0.0,0.0,0.0,0.0,0.0,0.0,0.0,0.0,0.0,0.0,0.0,0.014200226829559471,0.052761749373234114,0.2596402562776076,0.24426757929085915,0.3372846114051494,0.4630009152771698,0.3775398941462056,0.4816302877153886,0.23736270842452944,0.07399667714592703,0.00013032751004815154,0.0,0.0,0.0,0.0,0.0,0.0,0.0,0.0,0.0,0.0,0.0,0.0,0.0,0.0,0.006774543356281587,0.0033870229615185644,0.04077659278124876,0.2644603844164113,0.18355883640415455,0.4235271001631581,0.4594835648056031,0.3041943571172749,0.03335041187472641,0.15633133033546898,0.0,0.0,0.0,0.0,0.0,0.0,0.0,0.0,0.0,0.0,0.0,0.0,0.0,0.04702982609733774,0.2946844283497155,0.5578415376656454,0.7472641171554778,0.8652950774006128,0.9084125910302838,0.8591716741613276,0.785044172072108,0.6464294241712762,0.4437199052887103,0.18759749691591387,0.0,0.0,0.0,0.0,0.0,0.0,0.0,0.0,0.0,0.0,0.0,0.0,0.0,0.049765211508615535,0.2889520076405746,0.5312636794142226,0.7042709618369215,0.8092741454096861,0.8512226909148792,0.833504118747264,0.7604212264714076,0.6279298818098611,0.4297803334792471,0.18095328106968045,0.0,0.0,0.0,0.0,0.0,0.0,0.0,0.0,0.0,0.0,0.0,0.0,0.0,0.03309025428787457,0.2615941740618409,0.4103694934139839,0.5668301563930122,0.6875969994826694,0.6879849974133471,0.6882486370329102,0.4125840662183136,0.2890823351506228,0.3962995940944725,0.17365792510645073,0.0,0.0,0.0,0.0,0.0,0.0,0.0,0.0,0.0,0.0,0.0,0.0,0.0,0.01889002745831509,0.16089080345417645,0.3615160770424609,0.4316044211866768,0.5259262207011819,0.513286441959489,0.6334016474989056,0.4708175812805922,0.2377536909546739,0.07438765967607147,0.07373602212583072,0.0,0.0,0.0,0.0,0.0,0.0,0.0,0.0,0.0,0.0,0.0,0.0,0.0,0.04038561025110431,0.19801971825381035,0.2668052847307891,0.4420266425245733,0.6138624696565721,0.6053911815034423,0.5570605674718453,0.4822819252656294,0.4663879382386884,0.2707136177325003,0.06279298818098611,0.0,0.0,0.0,0.0,0.0,0.0,0.0,0.0,0.0,0.0,0.0,0.0,0.0,0.02149558279278921,0.11920241553583508,0.3142255959250269,0.3242568347327789,0.4058095228620319,0.4938760993274703,0.5734758645389788,0.5062527358828446,0.4484102033507104,0.3251691273031159,0.10096402562776076,0.0,0.0,0.0,0.0,0.0,0.0,0.0,0.0,0.0,0.0,0.0,0.0,0.0,0.058103187552230484,0.2936423057025748,0.5265728839189779,0.6933274304588324,0.7873870826535079,0.8522673007282423,0.8272513828644196,0.7442645946913925,0.6001830554339608,0.3926519161128577,0.17053105973178398,0.0,0.0,0.0,0.0,0.0,0.0,0.0,0.0,0.0,0.0,0.0,0.0,0.0,0.06357445580803056,0.3146165784551713,0.5674817939432528,0.75,0.8616439173862869,0.904637072704843,0.886918500537228,0.7273319670500219,0.6677941820207729,0.42391808269330256,0.2034909865096104,0.0,0.0,0.0,0.0,0.0,0.0,0.0,0.0,0.0,0.0,0.0,0.0,0.0,0.061881193043893515,0.28764922997333764,0.4908800588960962,0.7513032751004814,0.8512226909148792,0.8874408054439095,0.862036889649409,0.7688875402920928,0.5980988101396792,0.3982535118787059,0.17118269728202476,0.0,0.0,0.0,0.0,0.0,0.0,0.0,0.0,0.0,0.0,0.0,0.0,0.0,0.06578952604560469,0.0294425763062597,0.5751671375701379,0.25195391778423337,0.3084936726491305,0.425481515380636,0.9101088383938876,0.8121393608977676,0.6700077599586136,0.4499731386047993,0.202709518882566,0.0,0.0,0.0,0.0,0.0,0.0,0.0,0.0,0.0,0.0,0.0,0.0,0.0,0.07282422698873811,0.3239961797126826,0.5630546380675714,0.7300678498945442,0.7778264156950138,0.6053961558358868,0.626238608778702,0.5985663973894704,0.583638425723268,0.4511455887619882,0.2034909865096104,0.0,0.0,0.0,0.0,0.0,0.0,0.0,0.0,0.0,0.0,0.0,0.0,0.0,0.0772538700306419,0.3424957220740976,0.5921047395439532,0.7746229456007004,0.8837896454295834,0.9257431652672212,0.9045077400612838,0.8250378049265789,0.6623224163317283,0.4636520553941662,0.21234977516017356,0.01081270643479645,0.0,0.0,0.0,0.0,0.0,0.0,0.0,0.0,0.0,0.0,0.0,0.0,0.07816566516773449,0.3341577460304827,0.5806389032591827,0.7511689681244776,0.849267778264157,0.8546102113096422,0.8370259461180308,0.7604212264714076,0.6224581161208166,0.4344706315412472,0.19567432050618808,0.007425683473277887,0.0,0.0,0.0,0.0,0.0,0.0,0.0,0.0,0.0,0.0,0.0,0.0,0.07686288750049744,0.3004163516256119,0.5689144016872936,0.7427026543037925,0.8410601297305902,0.8744130287715388,0.8626885271996498,0.7475227824425962,0.6152950774006128,0.4258720004775359,0.19098451987743245,0.006644215846233435,0.0,0.0,0.0,0.0,0.0,0.0,0.0,0.0,0.0,0.0,0.0,0.0,0.08064089299216046,0.3299892554419197,0.5659198535556529,0.739056468621911,0.8401498268932309,0.8847049225993872,0.8695929006327352,0.7937691511799116,0.6606311433005689,0.4463254606231843,0.2034909865096104,0.011724999005133513,0.0,0.0,0.0,0.0,0.0,0.0,0.0,0.0,0.0,0.0,0.0,0.0,0.07334553702893072,0.28361106689482274,0.5657905209120937,0.6582832583867245,0.8310318755223051,0.8628178598432091,0.8422340721875125,0.7656343268733337,0.6264972740658205,0.32086981177126034,0.19580464801623626,0.009900911297703848,0.0,0.0,0.0,0.0,0.0,0.0,0.0,0.0,0.0,0.0,0.0,0.0,0.08207399816944566,0.32100013928130844,0.4349914441481953,0.5035168530383223,0.5349148394285487,0.7837408969716264,0.8170390783556847,0.5226680329499781,0.6182896255322536,0.4194889370846432,0.19359007521190655,0.008858788650563096,0.0,0.0,0.0,0.0,0.0,0.0,0.0,0.0,0.0,0.0,0.0,0.0,0.0699580166341677,0.2510416252138963,0.4841055155398146,0.6943720402721956,0.4932562975048748,0.5270006765092126,0.7196416490906921,0.6219358112141351,0.5491961478769549,0.4103694934139839,0.19632595805642886,0.011073361454892754,0.0,0.0,0.0,0.0,0.0,0.0,0.0,0.0,0.0,0.0,0.0,0.0,0.06122955549365275,0.2186030084762625,0.21925464602650324,0.12467418122487962,0.3357211787178161,0.4553145767837956,0.8466612280631939,0.7707131202992559,0.6401766882884318,0.4467164431533289,0.2008854311751363,0.014460881849655778,0.0,0.0,0.0,0.0,0.0,0.0,0.0,0.0,0.0,0.0,0.0,0.0,0.09471079231167176,0.3437984997413347,0.5738638624696566,0.5564089299216045,0.8375432766922679,0.8682896255322535,0.8551325162163238,0.7828305941342673,0.6519011898603208,0.4575291495881253,0.20909307970870308,0.017065939750885432,0.0,0.0,0.0,0.0,0.0,0.0,0.0,0.0,0.0,0.0,0.0,0.0,0.0988792829002348,0.3430165346810458,0.5624030005173305,0.7167764336026106,0.8314198734529826,0.8703738708265352,0.8471835329698755,0.6727436428031359,0.6436935413267539,0.4387694496398584,0.2085717696685105,0.016936109674081736,0.0,0.0,0.0,0.0,0.0,0.0,0.0,0.0,0.0,0.0,0.0,0.0,0.09757650523299774,0.3366329738549087,0.4921828365633332,0.5330892594213857,0.6835578415376657,0.7619831668590075,0.6812149309562657,0.6624517489752876,0.565268216005412,0.27774831867563377,0.13314198734529828,0.006644215846233435,0.0,0.0,0.0,0.0,0.0,0.0,0.0,0.0,0.0,0.0,0.0,0.0,0.013548589279318715,0.056539754864897124,0.0893693541326754,0.1684468144375025,0.090281149269768,0.059926777826415686,0.2055757292371364,0.2847835170520116,0.02162591030283736,0.16115145847427276,0.07647190497035299,0.00013032751004815154,0.0,0.0,0.0,0.0,0.0,0.0,0.0,0.0,0.0,0.0,0.0,0.0,0.05393419953042302,0.16779567432050618,0.2684990449281707,0.2515629352540889,0.3764977714990648,0.30627909984480084,0.28804021250348205,0.3144862509451232,0.303021906960086,0.09353834215448288,0.04325182060567472,0.0,0.0,0.0,0.0,0.0,0.0,0.0,0.0,0.0,0.0,0.0,0.0,0.0,0.016023817103744682,0.06787377133988619,0.2533870229615186,0.36698734529826094,0.6194635679891758,0.6369881411914521,0.4439487245811613,0.5298012256755144,0.4498164471327948,0.27240688049663736,0.13079708703092047,0.00781666600342234,0.0,0.0,0.0,0.0,0.0,0.0,0.0,0.0,0.0,0.0,0.0,0.0,0.11581539257431653,0.12571630387202035,0.3861380277766724,0.6125591945560906,0.8703738708265352,0.9060696804488838,0.8640664172868001,0.7468064785705758,0.6921584623343547,0.25403816307851484,0.12819153169644634,0.010552548847944605,0.0,0.0,0.0,0.0,0.0,0.0,0.0,0.0,0.0,0.0,0.0,0.0,0.1380924429941502,0.4180558319073581,0.6621930836881691,0.8361106689482272,0.9319959011500656,0.8449600063671456,0.9481475585976362,0.8164919017867803,0.7126079430140475,0.5010396354809185,0.23449699550320344,0.02553424330454853,0.0,0.0,0.0,0.0,0.0,0.0,0.0,0.0,0.0,0.0,0.0,0.0,0.13639918023001316,0.4030741374507541,0.6296211548410203,0.7842632018783079,0.8699808985634129,0.8938228739703131,0.8871821401567909,0.7997632217756377,0.6597158661307653,0.4652154880814995,0.2260286919495404,0.024361793147359624,0.0,0.0,0.0,0.0,0.0,0.0,0.0,0.0,0.0,0.0,0.0,0.0,0.1347054200326316,0.39174012097576505,0.6095596720920053,0.7912969079549524,0.8843119503362649,0.4887953161685702,0.9058110151617652,0.8219139241513789,0.6866866966453102,0.4721203589478292,0.23137013012853674,0.02905159377611525,0.0,0.0,0.0,0.0,0.0,0.0,0.0,0.0,0.0,0.0,0.0,0.0,0.1327510048151538,0.38483525010943537,0.6056548211230053,0.7621124995025668,0.4094572008436468,0.6971079231167178,0.7098720601695252,0.5339995622587449,0.34106261689681244,0.2653721795535039,0.13092741454096862,0.01237613912212981,0.0,0.0,0.0,0.0,0.0,0.0,0.0,0.0,0.0,0.0,0.0,0.0,0.014721039436507622,0.03256894424768196,0.03569580962234868,0.1208961757332166,0.2687592025150225,0.3685507779855943,0.4740742767320626,0.3740225436746389,0.3701142106729277,0.17548151538063592,0.08806657646543835,0.005602093199092682,0.0,0.0,0.0,0.0,0.0,0.0,0.0,0.0,0.0,0.0,0.0,0.0,0.005731923275896375,0.02462195073421147,0.09223556448724582,0.14317322615305028,0.14825400931195035,0.1584155756297505,0.1089105217079868,0.12298042102749812,0.10591448127661267,0.057842532532134186,0.02670669346173744,0.0,0.0,0.0,0.0,0.0,0.0,0.0,0.0,0.0,0.0,0.0,0.0,0.0,0.002475227824425962,0.002344900314377811,0.041297405388196914,0.0695675315372677,0.12337140355764255,0.08858788650563093,0.10578415376656453,0.06357445580803056,0.1297549643837797,0.10747791396394604,0.05198028174618966,0.001302777667237057,0.0,0.0,0.0,0.0,0.0,0.0,0.0,0.0,0.0,0.0,0.0,0.0,0.14108898085876875,0.38496557761948347,0.592756377094194,0.7384048310716702,0.4636520553941662,0.4013803772533726,0.5379093875601894,0.4226153050260656,0.6688387918341359,0.22029676867364398,0.22733146961677744,0.03048469895340045,0.0,0.0,0.0,0.0,0.0,0.0,0.0,0.0,0.0,0.0,0.0,0.0,0.0392131600939154,0.19254795256476584,0.387049822913765,0.4437199052887103,0.3873104779338613,0.4224849775160174,0.4966119821719925,0.4262629830076803,0.5716502845318159,0.32725337259739745,0.16779567432050618,0.02331917306697441,0.0,0.0,0.0,0.0,0.0,0.0,0.0,0.0,0.0,0.0,0.0,0.0,0.15633133033546898,0.4081549206096543,0.5582345099287676,0.6543784074177246,0.7647190497035298,0.8002855266823192,0.7683702097178559,0.6991921684109992,0.5707399816944566,0.3361121612479605,0.17118269728202476,0.025012933264355924,0.0,0.0,0.0,0.0,0.0,0.0,0.0,0.0,0.0,0.0,0.0,0.0,0.1512505471765689,0.35057254566437185,0.4426777826415695,0.4980450873492778,0.5224043933304151,0.5810318755223051,0.7020573838990807,0.5964025627760755,0.344449639858331,0.19020305225038805,0.09445013729157548,0.010031238807751999,0.0,0.0,0.0,0.0,0.0,0.0,0.0,0.0,0.0,0.0,0.0,0.0,0.07464831469616777,0.1816049186199212,0.28738907238648576,0.7716234231366151,0.8527846313024792,0.8903060209319911,0.7327788610768434,0.6816825182060569,0.6615414461379283,0.4558358868239882,0.10904084921803496,0.03204813164073382,0.0,0.0,0.0,0.0,0.0,0.0,0.0,0.0,0.0,0.0,0.0,0.0,0.15698247045246527,0.3920002785626169,0.3633396673166461,0.5069043734330853,0.6504685821162801,0.7132894265589559,0.8187800947112898,0.7515619403875999,0.6278005491663019,0.44645578813323256,0.130015619403876,0.018629372438218796,0.0,0.0,0.0,0.0,0.0,0.0,0.0,0.0,0.0,0.0,0.0,0.0,0.02670669346173744,0.13561721516972425,0.2368418958175813,0.2580768235902742,0.3801454494806797,0.5484599466751562,0.6010933582713199,0.5835041187472642,0.6615414461379283,0.3112295554936528,0.10122468064785706,0.013287934259222414,0.0,0.0,0.0,0.0,0.0,0.0,0.0,0.0,0.0,0.0,0.0,0.0,0.17574217040073226,0.4402025548171435,0.6631033865255282,0.8181334314934936,0.9077609534800429,0.9424171276214732,0.9176648493772136,0.8361106689482272,0.6990628357674399,0.4980450873492778,0.24791525727247404,0.036998587289585744,0.0,0.0,0.0,0.0,0.0,0.0,0.0,0.0,0.0,0.0,0.0,0.0018240877074296629,0.17952017589239525,0.4280870707151101,0.6431712364200725,0.7718870627561781,0.8615145847427276,0.8948674837836763,0.9037267698674838,0.7941621234430339,0.6614121134943691,0.4715990489076367,0.24022891877909985,0.0383013649568228,0.0,0.0,0.0,0.0,0.0,0.0,0.0,0.0,0.0,0.0,0.0,0.006644215846233435,0.18798847944605834,0.44111434995423615,0.6522891877909984,0.7996338891320784,0.8802777667237057,0.9048957379919615,0.8832723148553465,0.8097964503163676,0.6814735962433842,0.4884048310716702,0.2509117951370926,0.04077659278124876,0.0,0.0,0.0,0.0,0.0,0.0,0.0,0.0,0.0,0.0,0.0,0.004820128138803772,0.1621935811214135,0.31305314576783794,0.4725108440447292,0.5312636794142226,0.6608898085876875,0.567611126586812,0.7450505392176371,0.4043769151179912,0.4227456325361137,0.4616981376099327,0.2262893469696367,0.03686825977953759,0.0,0.0,0.0,0.0,0.0,0.0,0.0,0.0,0.0,0.0,0.0,0.0,0.15007809701938,0.23163078514863306,0.21547664053484025,0.23814467348481835,0.3781910342632019,0.4932249592104739,0.2939024632894265,0.2755337458713039,0.2830897568546301,0.17574217040073226,0.05328305941342672,0.021756237812885517,0.0,0.0,0.0,0.0,0.0,0.0,0.0,0.0,0.0,0.0,0.0,0.0,0.060187432846512005,0.17991115842253969,0.17053105973178398,0.7542182339130089,0.7783437462692507,0.5982082454534601,0.6462702455330495,0.5931791953519838,0.6005760276970831,0.5045614628516853,0.2494786899598074,0.04090642285805245,0.0,0.0,0.0,0.0,0.0,0.0,0.0,0.0,0.0,0.0,0.0,0.014721039436507622,0.20752964702136972,0.4782432647538701,0.7150851605714513,0.8757163038720204,0.9099098650961042,1.0,0.9679503760595328,0.8493175215886029,0.7116976401766884,0.3763674439890167,0.20583588682398826,0.04403328823271917,0.0,0.0,0.0,0.0,0.0,0.0,0.0,0.0,0.0,0.0,0.0,0.015372676986748381,0.2081812845716105,0.4700356162203033,0.6905915476143102,0.8398911616061125,0.9275637709419396,0.9557035695809624,0.9266534681045804,0.8439253452186717,0.7036193242866807,0.4900980938358073,0.2545594731187075,0.045205738389908066,0.0,0.0,0.0,0.0,0.0,0.0,0.0,0.0,0.0,0.0,0.0,0.018108559831270646,0.21404353535755505,0.472380516534681,0.6782154084921804,0.8185214294241713,0.8976033666281985,0.9215746746786582,0.892648931513391,0.8150045763858491,0.6859057264515103,0.4928339766803295,0.25494995821560745,0.04403328823271917,0.0,0.0,0.0,0.0,0.0,0.0,0.0,0.0,0.0,0.0,0.0,0.0194113374985077,0.21013520235584388,0.4653458155915477,0.6766534681045804,0.8194367065939749,0.7885610251104302,0.9360350590950696,0.9103675036810059,0.8333747861037049,0.6991921684109992,0.4882745035616221,0.25325669545147045,0.044554598272911784,0.0,0.0,0.0,0.0,0.0,0.0,0.0,0.0,0.0,0.0,0.0,0.02058378765569661,0.2034909865096104,0.4486703609375622,0.4597442198256994,0.4125840662183136,0.4641733654343587,0.20870209717855864,0.6511202196665208,0.8124030005173306,0.6701370926021728,0.4755073819093478,0.23879581360181465,0.04533606589995623,0.0,0.0,0.0,0.0,0.0,0.0,0.0,0.0,0.0,0.0,0.0,0.019932150105455848,0.19749840821361772,0.2847835170520116,0.5088592860838076,0.7868647777468264,0.6766534681045804,0.9050250706355208,0.8768852719964979,0.8058866250149229,0.6801703211429025,0.492052509053285,0.2510416252138963,0.045987206016952525,0.0,0.0,0.0,0.0,0.0,0.0,0.0,0.0,0.0,0.0,0.0,0.023189342990170718,0.20101575868518445,0.4323858888137213,0.5149826893230929,0.6263679414222612,0.2750124358311115,0.5919754069003941,0.7157069521270245,0.6272782442596203,0.3650334275140276,0.2368418958175813,0.11073460941541644,0.042339528035337665,0.0,0.0,0.0,0.0,0.0,0.0,0.0,0.0,0.0,0.0,0.0,0.0194113374985077,0.03413237693501532,0.13718064785705758,0.17847805324525448,0.22068775120378847,0.4198794221815432,0.6223287834772573,0.3693322456126388,0.34757650523299777,0.2098745473357476,0.17548151538063592,0.10578415376656453,0.045987206016952525,0.0,0.0,0.0,0.0,0.0,0.0,0.0,0.0,0.0,0.0,0.0,0.012506466632177962,0.07178210434159736,0.4609166699828883,0.4902284213458554,0.5833747861037049,0.6190705957260536,0.5838970910103863,0.6571142902622468,0.5868916391420271,0.5493752238449601,0.3804061045007761,0.2451793744279518,0.0498955390186637,0.0,0.0,0.0,0.0,0.0,0.0,0.0,0.0,0.0,0.0,0.0,0.001302777667237057,0.012115484102033508,0.0492443989016674,0.07595109236340483,0.07868647777468264,0.12558597636197222,0.15502855266823193,0.3615160770424609,0.3185249114568825,0.24140136893628875,0.15620100282542085,0.04468442834971547,0.0,0.0,0.0,0.0,0.0,0.0,0.0,0.0,0.0,0.0,0.0,0.0,0.03152682160054121,0.23045833499144416,0.4821515977555812,0.6715746746786581,0.8039317123642008,0.8830086752357834,0.9078952604560468,0.8815760674917427,0.8109703927732899,0.6809512913367026,0.4950485494846592,0.2623756416888853,0.05080783158900076,0.0,0.0,0.0,0.0,0.0,0.0,0.0,0.0,0.0,0.0,0.0,0.034262704445063484,0.2305886625014923,0.4675603883958773,0.6578952604560467,0.7906452704047118,0.7205569262604958,0.9009908870229616,0.8667276851446537,0.7952067332563969,0.6645359942695691,0.14929613195909108,0.25846780612041864,0.05289207688328226,0.0,0.0,0.0,0.0,0.0,0.0,0.0,0.0,0.0,0.0,0.0,0.03517449958215608,0.2382750009948665,0.4968726371920889,0.7079221218512476,0.8539585737594015,0.8786710573441044,0.6958096223486808,0.7286700624776155,0.6525528274105615,0.6850650642683752,0.5149826893230929,0.22290232400811813,0.05302240439333042,0.0,0.0,0.0,0.0,0.0,0.0,0.0,0.0,0.0,0.0,0.0,0.036998587289585744,0.24022891877909985,0.4962214970750925,0.5376954912650723,0.5657308289227586,0.7751601735047157,0.5924280711528513,0.6545923037128418,0.7875562099566239,0.5878914799633889,0.5184995423614149,0.16519011898603206,0.05406452704047117,0.0,0.0,0.0,0.0,0.0,0.0,0.0,0.0,0.0,0.0,0.0,0.03856152254367464,0.24114071391619246,0.4787640773608182,0.6925464602650324,0.8348073938477457,0.9170132118269728,0.9407208802578696,0.9144066616260098,0.8322008436467826,0.4702962712403996,0.4915311990130925,0.2599004138644594,0.057842532532134186,0.0,0.0,0.0,0.0,0.0,0.0,0.0,0.0,0.0,0.0,0.0,0.040646265271200605,0.24270414660352585,0.4803275100481516,0.6714403677026543,0.802762744239723,0.8775418838791835,0.8986430021091171,0.7832185920649449,0.8052349874646823,0.6740469179036174,0.4930946317004258,0.2682383899080744,0.059145310199371234,0.0,0.0,0.0,0.0,0.0,0.0,0.0,0.0,0.0,0.0,0.0,0.04155806040829321,0.2480455847825222,0.485668948227148,0.6931980978152732,0.8303802379720642,0.907631620836484,0.9351197819252656,0.9099795057503284,0.6344462573122688,0.7037536312626845,0.5091179513709261,0.26784740737792984,0.057972860042182335,0.0,0.0,0.0,0.0,0.0,0.0,0.0,0.0,0.0,0.0,0.0,0.021886565322933663,0.09158392693700504,0.29572655099685624,0.505730430976163,0.6366598352501095,0.6795186835926619,0.7150851605714513,0.8529189382784831,0.7767071908949821,0.6507272474033985,0.4727714990648255,0.2526050579012297,0.056539754864897124,0.0,0.0,0.0,0.0,0.0,0.0,0.0,0.0,0.0,0.0,0.0,0.042339528035337665,0.16466880894583946,0.35695610649050896,0.4881441760515739,0.46313124278721796,0.8014594691392416,0.41049982092403203,0.7774881610887819,0.5024772175574038,0.4616981376099327,0.26954116757531144,0.140437343308528,0.045205738389908066,0.0,0.0,0.0,0.0,0.0,0.0,0.0,0.0,0.0,0.0,0.0,0.012636794142226114,0.08129203310915675,0.3873104779338613,0.28634645230610056,0.5581002029527637,0.6489066417286801,0.6616707787814876,0.3181339289267381,0.3121413506307454,0.3126621632376935,0.2258983644394922,0.1285825142265908,0.0383013649568228,0.0,0.0,0.0,0.0,0.0,0.0,0.0,0.0,0.0,0.0,0.0,0.04507541087985992,0.11907208802578692,0.3435378447212384,0.4768101595765849,0.3156587011023121,0.7183433483226551,0.7447769509331847,0.5889758844363087,0.5173255999044928,0.3396295117195273,0.23788401846472204,0.12193829838035734,0.04038561025110431,0.0,0.0,0.0,0.0,0.0,0.0,0.0,0.0,0.0,0.0,0.0,0.001302777667237057,0.12128715826336105,0.028790938756018937,0.044293943252815465,0.170140574634884,0.3434075172111903,0.44306876517171395,0.35031238807751997,0.3151373910621195,0.35851953917784235,0.2907760953480043,0.16492946396593575,0.04742031119423774,0.0,0.0,0.0,0.0,0.0,0.0,0.0,0.0,0.0,0.0,0.0,0.0,0.14577878148752438,0.15411626009789486,0.14773319670500218,0.5810318755223051,0.4902284213458554,0.2877795574833857,0.3668570177882128,0.2395777786621036,0.20961389231565125,0.19619563054638067,0.0498955390186637,0.027357833578733733,0.0,0.0,0.0,0.0,0.0,0.0,0.0,0.0,0.0,0.0,0.0,0.01289744916232242,0.039604142624059854,0.0979674877631422,0.36829012296549796,0.8338970910103864,0.90281149269768,0.9286083807553026,0.7975496438377969,0.8357226710175495,0.7057035695809623,0.5028652154880815,0.2748821083210633,0.06240200565084165,0.0,0.0,0.0,0.0,0.0,0.0,0.0,0.0,0.0,0.0,0.0,0.050547176568904464,0.2630272792391261,0.4968726371920889,0.677305105654821,0.802762744239723,0.8740200565084165,0.8923902662262725,0.8629471924867683,0.7888196903975486,0.6634963587886505,0.4861897608340961,0.2652418520434558,0.059145310199371234,0.0,0.0,0.0,0.0,0.0,0.0,0.0,0.0,0.0,0.0,0.0,0.05028652154880815,0.26003074137450755,0.4900980938358073,0.6659686020136097,0.784780532452545,0.8529189382784831,0.8712841736638943,0.8483574754267977,0.7806120418639819,0.6610191412312467,0.4873627084245294,0.2683687174181225,0.06122955549365275,0.0,0.0,0.0,0.0,0.0,0.0,0.0,0.0,0.0,0.0,0.0,0.053803872020374864,0.2623756416888853,0.4950485494846592,0.6752208603605396,0.80015619403876,0.8699808985634129,0.8437910382426679,0.6841099924390147,0.6544679454017271,0.6699828882963907,0.4980450873492778,0.2744916232241633,0.06357445580803056,0.0,0.0,0.0,0.0,0.0,0.0,0.0,0.0,0.0,0.0,0.0,0.05484599466751562,0.2609430339448446,0.4885351585817183,0.5429682836563333,0.5728391499860719,0.7787715388594849,0.5942785228222373,0.6895767837956146,0.7776174937323411,0.6170012734291058,0.4809791475983923,0.2658934895936965,0.06500756098531578,0.0,0.0,0.0,0.0,0.0,0.0,0.0,0.0,0.0,0.0,0.0,0.055367304707708224,0.2595099287675594,0.4713383938875403,0.6802996537864618,0.8060159576584822,0.7824376218711451,0.9041147677981616,0.8746716940586573,0.7984599466751563,0.6762604958414581,0.4828027378725775,0.2671962672609336,0.06539854351546022,0.0,0.0,0.0,0.0,0.0,0.0,0.0,0.0,0.0,0.0,0.0,0.050547176568904464,0.2188636634963588,0.412975048748458,0.5901498268932309,0.42391808269330256,0.4554449042938438,0.7842632018783079,0.7724043933304151,0.7088324246886069,0.5234490031437781,0.4757680369294441,0.2339756854630109,0.06683164869274544,0.0,0.0,0.0,0.0,0.0,0.0,0.0,0.0,0.0,0.0,0.0,0.0613598830037009,0.2321515977555812,0.3837931274622946,0.5256625810816189,0.5418192128616339,0.6580245930996059,0.7337140355764257,0.6963269529229177,0.5552349874646823,0.3217816069083529,0.2331942178359664,0.16701370926021727,0.04820227625452665,0.0,0.0,0.0,0.0,0.0,0.0,0.0,0.0,0.0,0.0,0.0,0.014460881849655778,0.16701370926021727,0.3096661228063194,0.4147986390226432,0.5893688566994311,0.6235027259341797,0.6986698635043177,0.8254307771897013,0.747393449799037,0.6307950972979426,0.4611768275697402,0.2527353854112778,0.06982768912411955,0.0,0.0,0.0,0.0,0.0,0.0,0.0,0.0,0.0,0.0,0.0,0.04637818854709698,0.14577878148752438,0.303021906960086,0.4351217716582435,0.4038556050777986,0.4183159894942099,0.6249353336782204,0.5967955350391978,0.6753501930040989,0.5449430936368339,0.4679513709260218,0.26029139639460386,0.07230341438178997,0.0,0.0,0.0,0.0,0.0,0.0,0.0,0.0,0.0,0.0,0.0,0.06279298818098611,0.2592492737474631,0.4854082932070517,0.6675355167336544,0.6231097536710574,0.8379362489553902,0.8542222133789645,0.8271220502208604,0.7545564885192408,0.3311617055991086,0.4742046042421108,0.26185482908193725,0.07152144932150106,0.0,0.0,0.0,0.0,0.0,0.0,0.0,0.0,0.0,0.0,0.0,0.060969397906800914,0.2569043734330853,0.4786342472840145,0.3934333837399021,0.6728729754466951,0.8399608022603366,0.8394335230212105,0.6548410203350711,0.6461707588841578,0.5078146762704445,0.38275100481515373,0.20726899200127344,0.054325182060567474,0.0,0.0,0.0,0.0,0.0,0.0,0.0,0.0,0.0,0.0,0.0,0.037389072386485735,0.009900911297703848,0.13991653070157986,0.2755337458713039,0.6231097536710574,0.4244393927334952,0.3697232281427832,0.5699590115006566,0.5765997453141789,0.3002860241155637,0.20336065899956227,0.14499731386047993,0.07556010983326038,0.0,0.0,0.0,0.0,0.0,0.0,0.0,0.0,0.0,0.0,0.0,0.06787377133988619,0.29051544032790805,0.5393419953042302,0.7295455449878626,0.8596939790680092,0.9326475387003064,0.9482768912411954,0.9133670261450914,0.8349367264913049,0.7046639341000438,0.5213647578494965,0.28517400214891164,0.07647190497035299,0.0,0.0,0.0,0.0,0.0,0.0,0.0,0.0,0.0,0.0,0.0,0.06800409884993434,0.27944207887301525,0.5022135779378407,0.6786083807553027,0.7971566715746747,0.863598830037009,0.881188069561065,0.8600819769986868,0.7834822316845079,0.6670132118269729,0.4929643041903776,0.2787904413227745,0.07621124995025667,0.0,0.0,0.0,0.0,0.0,0.0,0.0,0.0,0.0,0.0,0.0,0.03856152254367464,0.2751427633411596,0.4962214970750925,0.6714403677026543,0.7942914560865932,0.8622955549365275,0.8798847944605833,0.6193342353456166,0.7888196903975486,0.663755024075769,0.4908800588960962,0.2759247284014485,0.07516912730311592,0.0,0.0,0.0,0.0,0.0,0.0,0.0,0.0,0.0,0.0,0.0,0.06787377133988619,0.26628397469059656,0.4809791475983923,0.6507272474033985,0.7684995423614152,0.8340264236539457,0.8516156631780015,0.7367085837080664,0.7687582076485336,0.15828524811970235,0.2490877074296629,0.27370965816387444,0.08038023797206416,0.0,0.0,0.0,0.0,0.0,0.0,0.0,0.0,0.0,0.0,0.0,0.07100063671455291,0.2176912133391699,0.4756377094193959,0.6433005690636316,0.758336981177126,0.8239931951132158,0.7304558478252219,0.556150264634486,0.21521598551474394,0.5794699351347049,0.3759764614588722,0.2699316526722114,0.08194367065939752,0.0,0.0,0.0,0.0,0.0,0.0,0.0,0.0,0.0,0.0,0.0,0.07034899916431216,0.2615941740618409,0.4740742767320626,0.6431712364200725,0.7613315293087668,0.7900334275140276,0.4616981376099327,0.8069760038202873,0.7556010983326038,0.5583339965776594,0.4742046042421108,0.2308488200883441,0.0799892554419197,0.0,0.0,0.0,0.0,0.0,0.0,0.0,0.0,0.0,0.0,0.0,0.06943720402721955,0.2668052847307891,0.4916615265231407,0.6689681244776949,0.7915555732420709,0.8616439173862869,0.881188069561065,0.8595596720920052,0.7872577500099487,0.6650582991762506,0.4785039197739664,0.2748821083210633,0.08064089299216046,0.0,0.0,0.0,0.0,0.0,0.0,0.0,0.0,0.0,0.0,0.0,0.070218671654264,0.26380874686617056,0.474465259262207,0.6621930836881691,0.7903866051175933,0.8596939790680092,0.8784521867165427,0.8533069362091608,0.7804827092204226,0.6391320784750686,0.472380516534681,0.27240688049663736,0.08129203310915675,0.0,0.0,0.0,0.0,0.0,0.0,0.0,0.0,0.0,0.0,0.0,0.04377263321262287,0.2550802857256556,0.4323858888137213,0.5798579330653827,0.755730430976163,0.7618538342154483,0.6972372557602771,0.7691511799116559,0.6516425245732023,0.5816835130725456,0.4228759600461618,0.2681080623980261,0.08233465318954197,0.0,0.0,0.0,0.0,0.0,0.0,0.0,0.0,0.0,0.0,0.0,0.07191243185164553,0.22303265151816629,0.46690924827888103,0.6298847944605834,0.7423146563731148,0.8047126825580008,0.8263410800270604,0.8049763221775638,0.4442412153289029,0.5173255999044928,0.461828465119981,0.22433542918540333,0.08585200366110868,0.0,0.0,0.0,0.0,0.0,0.0,0.0,0.0,0.0,0.0,0.0,0.07386634963587888,0.2563830633928927,0.4588319272553624,0.6223287834772573,0.7377531935214294,0.8035437144335231,0.8258187751203789,0.8018474670699193,0.7318884555692626,0.5401229654980302,0.4278264156950137,0.20492409168689565,0.07764435512754189,0.0,0.0,0.0,0.0,0.0,0.0,0.0,0.0,0.0,0.0,0.0,0.06344462573122688,0.2614638465517927,0.4102391659039357,0.5350441720721079,0.6717040073222174,0.5789476302280233,0.60343626885272,0.6426539058458355,0.5720432567949382,0.5665714911058937,0.41753452186716544,0.16297504874845795,0.079859425365116,0.0,0.0,0.0,0.0,0.0,0.0,0.0,0.0,0.0,0.0,0.0,0.0607087428867046,0.2498691750567074,0.4047674002148912,0.5517181344263601,0.6730072824226989,0.7286352421505035,0.6924221019539178,0.7330623980261849,0.6709230371284174,0.6350829718651757,0.4846268255800072,0.2823082892275857,0.08011958295196785,0.0,0.0,0.0,0.0,0.0,0.0,0.0,0.0,0.0,0.0,0.0,0.06670132118269728,0.2045331091567512,0.4052887102550838,0.5491115842253971,0.6393957180946318,0.6977595606669585,0.7503879979306777,0.7029676867364401,0.6632327191690875,0.5694367065939752,0.3755854789287278,0.25078146762704445,0.08155268812925306,0.0,0.0,0.0,0.0,0.0,0.0,0.0,0.0,0.0,0.0,0.0,0.06683164869274544,0.25195391778423337,0.3633396673166461,0.5371284173663894,0.6069580962234868,0.5225387003064189,0.2776179911655856,0.5046907954952445,0.6332723148553464,0.5092472840144853,0.3982535118787059,0.2492180349397111,0.08272513828644196,0.0,0.0,0.0,0.0,0.0,0.0,0.0,0.0,0.0,0.0,0.0,0.0690462214970751,0.24557035695809626,0.4339493215010545,0.5448137609932747,0.6694904293843766,0.69828186557364,0.7569043734330853,0.6818665685065064,0.6042222133789646,0.4833240479127701,0.3811875721278205,0.2429648016236221,0.03295992677782642,0.0,0.0,0.0,0.0,0.0,0.0,0.0,0.0,0.0,0.0,0.0,0.06305364320108242,0.2631576067491743,0.469384476103307,0.6327500099486649,0.7454385371483147,0.8094034780532453,0.8279030204146604,0.8064089299216046,0.739837438815711,0.6314467348481835,0.4740742767320626,0.27800897369572997,0.08923902662262724,0.0,0.0,0.0,0.0,0.0,0.0,0.0,0.0,0.0,0.0,0.0,0.06474740339846394,0.2615941740618409,0.4626099327470254,0.6254526642524573,0.7385341637152295,0.8011958295196785,0.3905676708185762,0.4452833379760437,0.552762744239723,0.6244130287715389,0.46313124278721796,0.2727978630267818,0.08285546579649011,0.0,0.0,0.0,0.0,0.0,0.0,0.0,0.0,0.0,0.0,0.0,0.07582076485335669,0.14304289864300213,0.4524483664292252,0.6121662222929684,0.7249840821361774,0.6124298619125313,0.5715209518882567,0.3574774165307016,0.08637281626805683,0.2906457678379562,0.3198276891241196,0.2257685343626885,0.08454922599387163,0.0,0.0,0.0,0.0,0.0,0.0,0.0,0.0,0.0,0.0,0.0,0.06969785904731586,0.2683687174181225,0.4838448605197183,0.6543784074177246,0.7546211548410203,0.7994050698396276,0.5280005173305743,0.7218602013609774,0.630755302638386,0.6331380078793426,0.4963513271518962,0.2925996856221895,0.090281149269768,0.0,0.0,0.0,0.0,0.0,0.0,0.0,0.0,0.0,0.0,0.0,0.07295455449878628,0.2591189462374149,0.4592229097855068,0.6189412630824943,0.7312417923514665,0.7949430936368339,0.8170888216801305,0.799111584225397,0.7351466433204664,0.6275418838791834,0.3445799673683792,0.23501780811015166,0.09353834215448288,0.0,0.0,0.0,0.0,0.0,0.0,0.0,0.0,0.0,0.0,0.0,0.07126079430140475,0.2625059691989335,0.2974203111942377,0.6288401846472204,0.4088060607266505,0.8125323331608899,0.8209986469815751,0.6264972740658205,0.7400961041028293,0.6297554618170241,0.4777219547136775,0.2841318795017709,0.09223556448724582,0.0,0.0,0.0,0.0,0.0,0.0,0.0,0.0,0.0,0.0,0.0,0.07126079430140475,0.25977008635441123,0.4620891201400772,0.6254526642524573,0.7311074853754627,0.59953141788372,0.8264704126706196,0.7965050340244341,0.7334553702893072,0.6266266067093796,0.4709479087906403,0.2816566516773449,0.09484111982171993,0.0,0.0,0.0,0.0,0.0,0.0,0.0,0.0,0.0,0.0,0.0,0.07360569461578256,0.1859037367185324,0.4573988220780771,0.6146434398503722,0.7242031119423774,0.7886903577539894,0.8079708703092046,0.7836115643280672,0.7208155915476143,0.4536208165864141,0.32152095188825663,0.26784740737792984,0.08702445381829757,0.0,0.0,0.0,0.0,0.0,0.0,0.0,0.0,0.0,0.0,0.0,0.07360569461578256,0.2558622507859445,0.452318038919177,0.6137281626805683,0.7269389947868997,0.4319954037168212,0.5768633849337419,0.12662809900911298,0.6971079231167178,0.623632058577739,0.4857992757371961,0.2892126626606709,0.08963000915277171,0.0,0.0,0.0,0.0,0.0,0.0,0.0,0.0,0.0,0.0,0.0,0.07204275936169367,0.2569043734330853,0.4607863424728402,0.6225874487643758,0.7376238608778701,0.5556279597278045,0.8340264236539457,0.6615414461379283,0.3142255959250269,0.03348073938477457,0.05119831668590075,0.04728998368418958,0.02774881610887819,0.0,0.0,0.0,0.0,0.0,0.0,0.0,0.0,0.0,0.0,0.0,0.07204275936169367,0.2571650284531816,0.4550539217636993,0.6181602928886943,0.7330623980261849,0.6879849974133471,0.3576077440407497,0.5350441720721079,0.7443989016673963,0.6279298818098611,0.4751163993792033,0.2451793744279518,0.09979157547057184,0.0,0.0,0.0,0.0,0.0,0.0,0.0,0.0,0.0,0.0,0.0,0.0410367503681006,0.2515629352540889,0.4471074256834733,0.4938760993274703,0.7260286919495403,0.5102918938278482,0.32126079430140475,0.4851476381869553,0.6195929006327351,0.4102391659039357,0.1122980421027498,0.007165028453181583,0.09236589199729396,0.0,0.0,0.0,0.0,0.0,0.0,0.0,0.0,0.0,0.0,0.0,0.07204275936169367,0.254168490588563,0.4562263719208882,0.6220701181901389,0.726416689880218,0.5704763420748935,0.4069819730192208,0.6012226909148792,0.6281885470969796,0.6284521867165427,0.4609166699828883,0.12219895340045366,0.05549763221775638,0.0,0.0,0.0,0.0,0.0,0.0,0.0,0.0,0.0,0.0,0.0,0.07191243185164553,0.25494995821560745,0.45440278164670295,0.6175086553384537,0.7322814278323848,0.5345218671654264,0.1859037367185324,0.7126079430140475,0.6456484539774763,0.4717293764176848,0.055888614747900835,0.0979674877631422,0.07087030920450478,0.0,0.0,0.0,0.0,0.0,0.0,0.0,0.0,0.0,0.0,0.0,0.04442427076286363,0.16076047594412832,0.13418410999243902,0.1460394365076207,0.2429648016236221,0.3457524175255681,0.6688387918341359,0.5867623064984678,0.17769658561821006,0.033871721914919016,0.15138087468661707,0.10982281427832384,0.06618001114250469,0.0,0.0,0.0,0.0,0.0,0.0,0.0,0.0,0.0,0.0,0.0,0.07008834414421583,0.2545594731187075,0.4553145767837956,0.6215478132834574,0.7240737792988181,0.6495582792789207,0.8163078514863306,0.7914262405985117,0.7269389947868997,0.6220701181901389,0.4826724103625294,0.2911670778781488,0.09549225993871624,0.0009117951370926023,0.0,0.0,0.0,0.0,0.0,0.0,0.0,0.0,0.0,0.0,0.0616205380237972,0.2545594731187075,0.46313124278721796,0.6327500099486649,0.7554717656890445,0.6020036611086792,0.7536461856818815,0.5776443551275419,0.6793893509491027,0.607868399060846,0.48944695371881103,0.2883008675235784,0.10565382625651637,0.0009117951370926023,0.0,0.0,0.0,0.0,0.0,0.0,0.0,0.0,0.0,0.0,0.057321222491941576,0.25286571292132604,0.45101526125194,0.5686557364001752,0.7245960842054997,0.6994508336981177,0.6701370926021728,0.7494776950933185,0.5155000198973297,0.5383023598233118,0.4825420828524812,0.29351197819252656,0.09536193242866807,0.0010421226471407539,0.0,0.0,0.0,0.0,0.0,0.0,0.0,0.0,0.0,0.0,0.0683950813800788,0.2621154841020336,0.4697754586334514,0.6320983723984241,0.6753501930040989,0.7113046679135661,0.8723287834772574,0.8431443750248717,0.7780104659954634,0.6688387918341359,0.4943974093676629,0.30080733415575633,0.09366866966453102,0.0019539177842333557,0.0,0.0,0.0,0.0,0.0,0.0,0.0,0.0,0.0,0.0,0.059926777826415686,0.2116986350431772,0.3817088821680131,0.5540660193402045,0.6520305225038799,0.7097427275259659,0.7497363603804371,0.799111584225397,0.7324107604759442,0.6289744916232242,0.4791550598909626,0.2915575629750488,0.09666471009590512,0.0007814676270444505,0.0,0.0,0.0,0.0,0.0,0.0,0.0,0.0,0.0,0.0,0.06357445580803056,0.2348874806001035,0.3789729993234908,0.3656845676310239,0.3104475904333639,0.5067750407895261,0.6922877949779139,0.5067750407895261,0.6422609335827133,0.5194098451987744,0.40502805523498747,0.10135451072466076,0.08298579330653827,0.0,0.0,0.0,0.0,0.0,0.0,0.0,0.0,0.0,0.0,0.0,0.0616205380237972,0.1945018703489992,0.4593532372955549,0.2251168968124478,0.08337677583668272,0.0610992279836046,0.2498691750567074,0.4697754586334514,0.7967686736439971,0.575948107763938,0.3716776433602611,0.2648508695133113,0.1070869314338016,0.0020842452942815078,0.0,0.0,0.0,0.0,0.0,0.0,0.0,0.0,0.0,0.0,0.0,0.05862400015917864,0.2347571530900553,0.3600829718651757,0.64968761192248,0.7548201281388038,0.8647727724939314,0.7199052887102552,0.6350929205300649,0.3486186278801385,0.4331678538740101,0.2245955867722552,0.09627372756576068,0.0010421226471407539,0.0,0.0,0.0,0.0,0.0,0.0,0.0,0.0,0.0,0.0,0.057972860042182335,0.2509117951370926,0.3810572446177723,0.614379800230809,0.7251183891121812,0.7918192128616339,0.7228998368418958,0.6862937243821879,0.7393151339090295,0.6263679414222612,0.4779826097337738,0.2933816506824785,0.0994005929404274,0.0019539177842333557,0.0,0.0,0.0,0.0,0.0,0.0,0.0,0.0,0.0,0.0,0.06735246129969359,0.2484365673126667,0.4495826535078992,0.6126885271996498,0.7301971825381034,0.8028920768832822,0.8066576465438339,0.4855386207170997,0.7057035695809623,0.6147976441561543,0.4633918978073143,0.2988529189382785,0.09953092045047557,0.0031268653746667195,0.0,0.0,0.0,0.0,0.0,0.0,0.0,0.0,0.0,0.0,0.06279298818098611,0.2472636197222333,0.4527090214493215,0.5329599267778264,0.4075032830594134,0.16271489116160612,0.8568237892474828,0.8090154801225676,0.779050101476382,0.5459877034501971,0.1621935811214135,0.2331942178359664,0.10044271558756816,0.0031268653746667195,0.0,0.0,0.0,0.0,0.0,0.0,0.0,0.0,0.0,0.0,0.06526821600541208,0.2438765967607147,0.4467164431533289,0.6146434398503722,0.7404890763659516,0.8101844482470453,0.8332454534601457,0.13105774205101678,0.09575291495881252,0.2950749134466155,0.38027577699072784,0.2093537347287994,0.07060965418440845,0.0,0.0,0.0,0.0,0.0,0.0,0.0,0.0,0.0,0.0,0.0,0.05601844482470452,0.24426757929085915,0.448540033427514,0.6176379879820129,0.7381461657845517,0.17339727008635442,0.1552892076883282,0.1483843368219985,0.2759247284014485,0.35851953917784235,0.3826206773051057,0.29129690795495244,0.10031238807752,0.0,0.0,0.0,0.0,0.0,0.0,0.0,0.0,0.0,0.0,0.0,0.039864300210911696,0.2238141191452107,0.4287382108321064,0.6142504675872498,0.5187582076485335,0.2251168968124478,0.6043515460225238,0.6249353336782204,0.4943974093676629,0.5074266783397668,0.2454400294480481,0.2955962234868081,0.056409427354848975,0.0,0.0,0.0,0.0,0.0,0.0,0.0,0.0,0.0,0.0,0.0,0.0699580166341677,0.140437343308528,0.3604734569620757,0.4790247323809145,0.027227506068685584,0.06279298818098611,0.08963000915277171,0.19280860758486207,0.4093273707668431,0.6146434398503722,0.39460583389709103,0.013548589279318715,0.1014848382347089,0.0,0.0,0.0,0.0,0.0,0.0,0.0,0.0,0.0,0.0,0.0,0.060969397906800914,0.24140136893628875,0.4402025548171435,0.6055254884794461,0.7170400732221737,0.8153975486489714,0.8389758844363087,0.7843925345218672,0.7236808070356958,0.5358251422659079,0.4712080663774921,0.2884311950336265,0.1117767320625572,0.0,0.0,0.0,0.0,0.0,0.0,0.0,0.0,0.0,0.0,0.0,0.06422609335827133,0.23228192526562935,0.4219641649090693,0.5975765052329978,0.7239444466552588,0.6272782442596203,0.6847317839945879,0.8077122050220861,0.7385341637152295,0.6257163038720205,0.4600043774125512,0.2825684468144375,0.09679503760595327,0.0,0.0,0.0,0.0,0.0,0.0,0.0,0.0,0.0,0.0,0.0,0.06331429822117872,0.2342363404831072,0.4260023279875841,0.5872846114051495,0.6291038242667835,0.7221188666480959,0.6960633133033547,0.6872040272195472,0.6172450157188905,0.5375164152970671,0.4145379840025469,0.28113583907039674,0.10565382625651637,0.0,0.0,0.0,0.0,0.0,0.0,0.0,0.0,0.0,0.0,0.0,0.0607087428867046,0.2296763699311553,0.4168833817501692,0.5742568347327789,0.6965856182100362,0.5835041187472642,0.4868413983843368,0.7823082892275857,0.11920241553583508,0.18837896454295835,0.2116986350431772,0.29286034064228583,0.09835847029328663,0.0,0.0,0.0,0.0,0.0,0.0,0.0,0.0,0.0,0.0,0.0,0.0610992279836046,0.2308488200883441,0.42066138724183216,0.5789476302280233,0.6948943451788772,0.7641967447968483,0.5179772374547336,0.4861897608340961,0.7269389947868997,0.6163347128815313,0.4709479087906403,0.2931209956623821,0.11164640455250906,0.0007814676270444505,0.0,0.0,0.0,0.0,0.0,0.0,0.0,0.0,0.0,0.0,0.057581877512037874,0.23449699550320344,0.4327768713438657,0.5983574754267978,0.7163884356719329,0.7843925345218672,0.7301971825381034,0.6904622149707509,0.4235271001631581,0.5495045564885193,0.4375969994826695,0.27605505591149665,0.10930150423813123,0.0007814676270444505,0.0,0.0,0.0,0.0,0.0,0.0,0.0,0.0,0.0,0.0,0.055367304707708224,0.22225068645787735,0.35070287317442,0.5312636794142226,0.6564626527120061,0.6320983723984241,0.6517718572167616,0.4747259142823033,0.5779030204146604,0.4868413983843368,0.4252208603605396,0.27566407338135224,0.038040709936726494,0.0,0.0,0.0,0.0,0.0,0.0,0.0,0.0,0.0,0.0,0.0,0.014069899319511322,0.07464831469616777,0.2093537347287994,0.2424434915834295,0.4955698595248518,0.6912431851645509,0.6449968164272355,0.6414799633889132,0.5832454534601457,0.4477585658004696,0.3112295554936528,0.23736270842452944,0.09132327191690877,0.0,0.0,0.0,0.0,0.0,0.0,0.0,0.0,0.0,0.0,0.0,0.05706106490508974,0.14577878148752438,0.2257685343626885,0.390827828405428,0.593537347287994,0.5982281427832385,0.5586225078594452,0.6968442834971548,0.6882486370329102,0.5152413546102113,0.4094572008436468,0.2116986350431772,0.07516912730311592,0.0,0.0,0.0,0.0,0.0,0.0,0.0,0.0,0.0,0.0,0.0,0.048723088861474785,0.22277199649807,0.409587528353695,0.5699590115006566,0.5204544550121374,0.6048688765967607,0.2630272792391261,0.7479157547057185,0.6638843567193282,0.4821515977555812,0.12350173106769073,0.054455509570615616,0.0,0.0,0.0,0.0,0.0,0.0,0.0,0.0,0.0,0.0,0.0,0.0,0.05667008237494527,0.22303265151816629,0.4099785108838394,0.5749084722830197,0.7015350789923992,0.4317347486967249,0.7054449042938439,0.712349277726929,0.4541421266266068,0.5673524612996935,0.3698535556528314,0.2471337896454296,0.07100063671455291,0.0,0.0,0.0,0.0,0.0,0.0,0.0,0.0,0.0,0.0,0.0,0.05328305941342672,0.2261590194595885,0.4265236380277767,0.5239713080504595,0.607868399060846,0.6418679613195909,0.5238419754069004,0.4976521150861555,0.6193342353456166,0.6285815193601021,0.4253511878705878,0.2773578335787337,0.1085200366110868,0.0007814676270444505,0.0,0.0,0.0,0.0,0.0,0.0,0.0,0.0,0.0,0.0,0.05484599466751562,0.22368379163516253,0.4193586095745951,0.5866329738549086,0.707136177325003,0.7793087667635004,0.7089617573321658,0.7978083091249154,0.7347586453897886,0.6328793425922241,0.4816302877153886,0.29377213577937844,0.0996612479605237,0.0,0.0,0.0,0.0,0.0,0.0,0.0,0.0,0.0,0.0,0.0,0.05393419953042302,0.22277199649807,0.3664665326913129,0.505730430976163,0.4712080663774921,0.1938507302320029,0.12819153169644634,0.3156587011023121,0.6206375104460982,0.4547937641768474,0.3742827012614907,0.2918182179951451,0.08024991046201599,0.0,0.0,0.0,0.0,0.0,0.0,0.0,0.0,0.0,0.0,0.0,0.04637818854709698,0.15698247045246527,0.4269146205579211,0.242834474113574,0.5756894424768196,0.5723019220820565,0.1347054200326316,0.1959349755262844,0.3738922161645907,0.3629486847865017,0.28960364519081544,0.16141211349436907,0.03152682160054121,0.0,0.0,0.0,0.0,0.0,0.0,0.0,0.0,0.0,0.0,0.0,0.023840483107167014,0.16597158661307654,0.060187432846512005,0.16154244100441725,0.1938507302320029,0.3677693103585499,0.384184109992439,0.4265236380277767,0.4507551036650882,0.4557055593139401,0.057321222491941576,0.14421534880019102,0.08976033666281985,0.0,0.0,0.0,0.0,0.0,0.0,0.0,0.0,0.0,0.0,0.0,0.017456922281029887,0.13196953718810936,0.19919216841099924,0.3324644832663457,0.7602918938278483,0.6388734131879502,0.8329867881730272,0.55015619403876,0.3453614349954237,0.6036999084722829,0.4908800588960962,0.29755014127104146,0.10369990847228304,0.0,0.0,0.0,0.0,0.0,0.0,0.0,0.0,0.0,0.0,0.0,0.04364230570257471,0.2279831071670182,0.44437154283895103,0.6393957180946318,0.7691511799116559,0.33819640654224203,0.7025796888057624,0.8269927175773012,0.7602918938278483,0.6572436229058061,0.5006516375502408,0.22707081459668116,0.09510127740857176,0.0,0.0,0.0,0.0,0.0,0.0,0.0,0.0,0.0,0.0,0.0,0.04742031119423774,0.22433542918540333,0.4303016435194397,0.6009640256277609,0.7205569262604958,0.7927295156989933,0.5694367065939752,0.8051056548211231,0.4989553901866369,0.6404353535755501,0.4830633928926738,0.2927300131322377,0.10552349874646824,0.0,0.0,0.0,0.0,0.0,0.0,0.0,0.0,0.0,0.0,0.0,0.05002586652871185,0.21834235345616615,0.3557836563333201,0.5345218671654264,0.6297554618170241,0.7038829639062438,0.7985942536511601,0.7793087667635004,0.3586498666878905,0.4687328385530662,0.4745955867722552,0.2879098849934339,0.09184458195710136,0.0,0.0,0.0,0.0,0.0,0.0,0.0,0.0,0.0,0.0,0.0,0.04820227625452665,0.21469467547455132,0.4107599785108839,0.5797286004218234,0.7008834414421585,0.7729266982370966,0.7978083091249154,0.7912969079549524,0.7301971825381034,0.6283228540729835,0.4786342472840145,0.2888216801305265,0.10252696088184966,0.0,0.0,0.0,0.0,0.0,0.0,0.0,0.0,0.0,0.0,0.0,0.04299116558557842,0.21625810816188468,0.42391808269330256,0.5969248676827571,0.5328305941342673,0.28738907238648576,0.8314198734529826,0.8028920768832822,0.7712354252059375,0.6646703012455729,0.5063820685264038,0.2988529189382785,0.09549225993871624,0.0,0.0,0.0,0.0,0.0,0.0,0.0,0.0,0.0,0.0,0.0,0.03869185005372279,0.2153463130247921,0.3953877989573799,0.413365533845358,0.192678280074814,0.4916615265231407,0.7072704843010068,0.6405646862191094,0.529831071670182,0.5270951888256596,0.35851953917784235,0.2424434915834295,0.09458046480162363,0.0,0.0,0.0,0.0,0.0,0.0,0.0,0.0,0.0,0.0,0.0,0.03608629471924868,0.1761331529308767,0.3646424449838832,0.5471566715746747,0.6042222133789646,0.7050519320307216,0.8176111265868121,0.6849904492817064,0.6307950972979426,0.5832454534601457,0.4779826097337738,0.24960901746985556,0.089890664172868,0.0,0.0,0.0,0.0,0.0,0.0,0.0,0.0,0.0,0.0,0.0,0.037389072386485735,0.2145643479645032,0.4274354331648693,0.5999194158143977,0.7217308687174182,0.7932518206056748,0.5716502845318159,0.10356958096223487,0.357868399060846,0.6125591945560906,0.5052081260694
...